ieee37_Reduced.dss
Clear

 New Circuit.ieee37_Reduced basekv=230 pu=1 MVAsc3=200000 MVAsc1=210000
New Line.701_702 Phases=3 bus1=701.1.2.3 bus2=702.1.2.3 Units=km Length=0.96 Rmatrix=[0.0899810610009    0.0308522730009    0.0233712120015| 0.0308522730009    0.0849999999995    0.0308522729984| 0.0233712120015    0.0308522729984    0.0899810610006|] Xmatrix=[  0.0563068180002  -0.00617424200019   -0.0114962120003| -0.00617424200019    0.0507196970018   -0.0061742419971|  -0.0114962120003   -0.0061742419971    0.0563068180015|] Cmatrix=[0                  0                  0| 0                  0                  0| 0                  0                  0|]
New Line.702_705 Phases=3 bus1=702.1.2.3 bus2=705.1.2.3 Units=km Length=0.4 Rmatrix=[ 0.396818181996     0.098560605995    0.0932954550059|  0.098560605995     0.399015152006    0.0985606059975| 0.0932954550059    0.0985606059975     0.396818182002|] Xmatrix=[ 0.146931818008    0.0518560609941    0.0402083330234| 0.0518560609941     0.140113636018    0.0518560609865| 0.0402083330234    0.0518560609865     0.146931818003|] Cmatrix=[0                  0                  0| 0                  0                  0| 0                  0                  0|]
New Line.702_713 Phases=3 bus1=702.1.2.3 bus2=713.1.2.3 Units=km Length=0.36 Rmatrix=[ 0.244999999998    0.0922537879988    0.0868371209988| 0.0922537879988     0.246628787998    0.0922537879961| 0.0868371209988    0.0922537879961              0.245|] Xmatrix=[ 0.127140152002    0.0399810610004    0.0288068179995| 0.0399810610004     0.119810606003    0.0399810610046| 0.0288068179995    0.0399810610046     0.127140152004|] Cmatrix=[0                  0                  0| 0                  0                  0| 0                  0                  0|]
New Line.702_703 Phases=3 bus1=702.1.2.3 bus2=703.1.2.3 Units=km Length=1.32 Rmatrix=[0.0899810609966     0.030852273001    0.0233712119996|  0.030852273001    0.0849999999981    0.0308522729987| 0.0233712119996    0.0308522729987    0.0899810610006|] Xmatrix=[ 0.0563068180015   -0.0061742420027   -0.0114962120028| -0.0061742420027    0.0507196970027  -0.00617424199959| -0.0114962120028  -0.00617424199959     0.056306817997|] Cmatrix=[0                  0                  0| 0                  0                  0| 0                  0                  0|]
New Line.705_742 Phases=3 bus1=705.1.2.3 bus2=742.1.2.3 Units=km Length=0.32 Rmatrix=[ 0.396818181999    0.0985606060007    0.0932954550005| 0.0985606060007     0.399015152001     0.098560606001| 0.0932954550005     0.098560606001     0.396818181999|] Xmatrix=[ 0.146931817998    0.0518560609941    0.0402083329994| 0.0518560609941     0.140113636004    0.0518560609981| 0.0402083329994    0.0518560609981     0.146931817999|] Cmatrix=[0                  0                  0| 0                  0                  0| 0                  0                  0|]
New Line.705_712 Phases=3 bus1=705.1.2.3 bus2=712.1.2.3 Units=km Length=0.24 Rmatrix=[ 0.396818181998    0.0985606059997    0.0932954549989| 0.0985606059997     0.399015152001    0.0985606060008| 0.0932954549989    0.0985606060008     0.396818181999|] Xmatrix=[ 0.146931817999    0.0518560610011    0.0402083330023| 0.0518560610011     0.140113635999    0.0518560609982| 0.0402083330023    0.0518560609982     0.146931818001|] Cmatrix=[0                  0                  0| 0                  0                  0| 0                  0                  0|]
New Line.713_704 Phases=3 bus1=713.1.2.3 bus2=704.1.2.3 Units=km Length=0.52 Rmatrix=[ 0.244999999997     0.092253787999    0.0868371209996|  0.092253787999        0.246628788    0.0922537879998| 0.0868371209996    0.0922537879998     0.245000000002|] Xmatrix=[ 0.127140152001    0.0399810610052    0.0288068179998| 0.0399810610052     0.119810606003    0.0399810609895| 0.0288068179998    0.0399810609895     0.127140151993|] Cmatrix=[0                  0                  0| 0                  0                  0| 0                  0                  0|]
New Line.703_727 Phases=3 bus1=703.1.2.3 bus2=727.1.2.3 Units=km Length=0.24 Rmatrix=[ 0.396818181998    0.0985606060022    0.0932954549989| 0.0985606060022     0.399015151999    0.0985606059988| 0.0932954549989    0.0985606059988     0.396818182001|] Xmatrix=[ 0.146931818001    0.0518560609926    0.0402083329901| 0.0518560609926     0.140113635998    0.0518560609926| 0.0402083329901    0.0518560609926     0.146931817996|] Cmatrix=[0                  0                  0| 0                  0                  0| 0                  0                  0|]
New Line.703_730 Phases=3 bus1=703.1.2.3 bus2=730.1.2.3 Units=km Length=0.6 Rmatrix=[          0.245    0.0922537879989    0.0868371210025| 0.0922537879989     0.246628788002    0.0922537880011| 0.0868371210025    0.0922537880011              0.245|] Xmatrix=[ 0.127140151998    0.0399810609953    0.0288068179988| 0.0399810609953     0.119810605995    0.0399810609962| 0.0288068179988    0.0399810609962     0.127140151993|] Cmatrix=[0                  0                  0| 0                  0                  0| 0                  0                  0|]
New Line.727_744 Phases=3 bus1=727.1.2.3 bus2=744.1.2.3 Units=km Length=0.28 Rmatrix=[ 0.244999999999    0.0922537880012    0.0868371209995| 0.0922537880012        0.246628788    0.0922537879996| 0.0868371209995    0.0922537879996              0.245|] Xmatrix=[ 0.127140152003    0.0399810609963    0.0288068179932| 0.0399810609963     0.119810605999    0.0399810609938| 0.0288068179932    0.0399810609938     0.127140151993|] Cmatrix=[0                  0                  0| 0                  0                  0| 0                  0                  0|]
New Line.730_709 Phases=3 bus1=730.1.2.3 bus2=709.1.2.3 Units=km Length=0.2 Rmatrix=[ 0.245000000001    0.0922537879999    0.0868371209984| 0.0922537879999     0.246628788001    0.0922537879987| 0.0868371209984    0.0922537879987              0.245|] Xmatrix=[ 0.127140152003    0.0399810610013    0.0288068180023| 0.0399810610013     0.119810606002    0.0399810610055| 0.0288068180023    0.0399810610055     0.127140152007|] Cmatrix=[0                  0                  0| 0                  0                  0| 0                  0                  0|]
New Line.704_714 Phases=3 bus1=704.1.2.3 bus2=714.1.2.3 Units=km Length=0.08 Rmatrix=[ 0.396818181999    0.0985606059966    0.0932954549989| 0.0985606059966        0.399015152    0.0985606060007| 0.0932954549989    0.0985606060007     0.396818181998|] Xmatrix=[ 0.146931818003    0.0518560610039    0.0402083330038| 0.0518560610039     0.140113635996    0.0518560609988| 0.0402083330038    0.0518560609988     0.146931817989|] Cmatrix=[0                  0                  0| 0                  0                  0| 0                  0                  0|]
New Line.704_720 Phases=3 bus1=704.1.2.3 bus2=720.1.2.3 Units=km Length=0.8 Rmatrix=[ 0.245000000003    0.0922537879966    0.0868371209984| 0.0922537879966        0.246628788    0.0922537880002| 0.0868371209984    0.0922537880002     0.245000000004|] Xmatrix=[ 0.127140151989    0.0399810610012     0.028806817999| 0.0399810610012     0.119810605999    0.0399810610026|  0.028806817999    0.0399810610026     0.127140151985|] Cmatrix=[0                  0                  0| 0                  0                  0| 0                  0                  0|]
New Line.714_718 Phases=3 bus1=714.1.2.3 bus2=718.1.2.3 Units=km Length=0.52 Rmatrix=[ 0.396818181999     0.098560605997    0.0932954549995|  0.098560605997     0.399015151999    0.0985606059993| 0.0932954549995    0.0985606059993     0.396818181999|] Xmatrix=[    0.146931818    0.0518560609999    0.0402083330052| 0.0518560609999     0.140113635999    0.0518560609967| 0.0402083330052    0.0518560609967     0.146931817999|] Cmatrix=[0                  0                  0| 0                  0                  0| 0                  0                  0|]
New Line.720_706 Phases=3 bus1=720.1.2.3 bus2=706.1.2.3 Units=km Length=0.6 Rmatrix=[          0.245    0.0922537880001    0.0868371210001| 0.0922537880001        0.246628788    0.0922537879994| 0.0868371210001    0.0922537879994              0.245|] Xmatrix=[ 0.127140151998    0.0399810609999    0.0288068180035| 0.0399810609999     0.119810605996     0.039981060999| 0.0288068180035     0.039981060999        0.127140152|] Cmatrix=[0                  0                  0| 0                  0                  0| 0                  0                  0|]
New Line.720_707 Phases=3 bus1=720.1.2.3 bus2=707.1.2.3 Units=km Length=0.92 Rmatrix=[ 0.396818182006    0.0985606060057    0.0932954550028| 0.0985606060057     0.399015152002    0.0985606060011| 0.0932954550028    0.0985606060011     0.396818181999|] Xmatrix=[ 0.146931817993    0.0518560609662     0.040208333027| 0.0518560609662     0.140113635986    0.0518560610106|  0.040208333027    0.0518560610106     0.146931818015|] Cmatrix=[0                  0                  0| 0                  0                  0| 0                  0                  0|]
New Line.706_725 Phases=3 bus1=706.1.2.3 bus2=725.1.2.3 Units=km Length=0.28 Rmatrix=[    0.396818182    0.0985606060002    0.0932954550007| 0.0985606060002        0.399015152    0.0985606059993| 0.0932954550007    0.0985606059993        0.396818182|] Xmatrix=[ 0.146931818002    0.0518560609982    0.0402083330017| 0.0518560609982     0.140113635996    0.0518560609967| 0.0402083330017    0.0518560609967     0.146931818004|] Cmatrix=[0                  0                  0| 0                  0                  0| 0                  0                  0|]
New Line.707_724 Phases=3 bus1=707.1.2.3 bus2=724.1.2.3 Units=km Length=0.76 Rmatrix=[    0.396818182    0.0985606060001    0.0932954549995| 0.0985606060001        0.399015152    0.0985606060006| 0.0932954549995    0.0985606060006        0.396818182|] Xmatrix=[ 0.146931818004    0.0518560610018     0.040208333007| 0.0518560610018     0.140113636001     0.051856061008|  0.040208333007     0.051856061008     0.146931818008|] Cmatrix=[0                  0                  0| 0                  0                  0| 0                  0                  0|]
New Line.707_722 Phases=3 bus1=707.1.2.3 bus2=722.1.2.3 Units=km Length=0.12 Rmatrix=[ 0.396818182001    0.0985606060001    0.0932954549997| 0.0985606060001        0.399015152    0.0985606059991| 0.0932954549997    0.0985606059991        0.396818182|] Xmatrix=[ 0.146931818002    0.0518560609986    0.0402083330051| 0.0518560609986     0.140113635998    0.0518560610015| 0.0402083330051    0.0518560610015     0.146931817999|] Cmatrix=[0                  0                  0| 0                  0                  0| 0                  0                  0|]
New Line.708_733 Phases=3 bus1=708.1.2.3 bus2=733.1.2.3 Units=km Length=0.32 Rmatrix=[          0.245    0.0922537880017    0.0868371209987| 0.0922537880017     0.246628787999    0.0922537880003| 0.0868371209987    0.0922537880003     0.245000000001|] Xmatrix=[ 0.127140152007    0.0399810610056    0.0288068180019| 0.0399810610056     0.119810605998    0.0399810610013| 0.0288068180019    0.0399810610013     0.127140151999|] Cmatrix=[0                  0                  0| 0                  0                  0| 0                  0                  0|]
New Line.708_732 Phases=3 bus1=708.1.2.3 bus2=732.1.2.3 Units=km Length=0.32 Rmatrix=[ 0.396818182002    0.0985606060004    0.0932954549987| 0.0985606060004     0.399015151999    0.0985606059994| 0.0932954549987    0.0985606059994     0.396818182001|] Xmatrix=[ 0.146931818009    0.0518560609989    0.0402083329985| 0.0518560609989     0.140113636004    0.0518560610032| 0.0402083329985    0.0518560610032     0.146931817999|] Cmatrix=[0                  0                  0| 0                  0                  0| 0                  0                  0|]
New Line.733_734 Phases=3 bus1=733.1.2.3 bus2=734.1.2.3 Units=km Length=0.56 Rmatrix=[          0.245    0.0922537879996    0.0868371210002| 0.0922537879996        0.246628788    0.0922537880004| 0.0868371210002    0.0922537880004     0.244999999999|] Xmatrix=[ 0.127140151998    0.0399810610077    0.0288068179896| 0.0399810610077        0.119810606    0.0399810610055| 0.0288068179896    0.0399810610055     0.127140152005|] Cmatrix=[0                  0                  0| 0                  0                  0| 0                  0                  0|]
New Line.709_708 Phases=3 bus1=709.1.2.3 bus2=708.1.2.3 Units=km Length=0.32 Rmatrix=[ 0.244999999999    0.0922537880016    0.0868371209986| 0.0922537880016     0.246628787999    0.0922537879968| 0.0868371209986    0.0922537879968     0.245000000003|] Xmatrix=[ 0.127140152007    0.0399810610035     0.028806818005| 0.0399810610035     0.119810606002    0.0399810610039|  0.028806818005    0.0399810610039     0.127140151999|] Cmatrix=[0                  0                  0| 0                  0                  0| 0                  0                  0|]
New Line.709_731 Phases=3 bus1=709.1.2.3 bus2=731.1.2.3 Units=km Length=0.6 Rmatrix=[ 0.245000000001    0.0922537880004     0.086837120999| 0.0922537880004     0.246628788001    0.0922537880002|  0.086837120999    0.0922537880002     0.245000000001|] Xmatrix=[    0.127140152    0.0399810609991    0.0288068179997| 0.0399810609991        0.119810606     0.039981061003| 0.0288068179997     0.039981061003     0.127140151999|] Cmatrix=[0                  0                  0| 0                  0                  0| 0                  0                  0|]
New Line.710_735 Phases=3 bus1=710.1.2.3 bus2=735.1.2.3 Units=km Length=0.2 Rmatrix=[    0.396818182    0.0985606059993    0.0932954549998| 0.0985606059993        0.399015152    0.0985606059993| 0.0932954549998    0.0985606059993     0.396818182001|] Xmatrix=[ 0.146931818001    0.0518560609983    0.0402083330014| 0.0518560609983     0.140113636001    0.0518560610041| 0.0402083330014    0.0518560610041     0.146931817998|] Cmatrix=[0                  0                  0| 0                  0                  0| 0                  0                  0|]
New Line.710_736 Phases=3 bus1=710.1.2.3 bus2=736.1.2.3 Units=km Length=1.28 Rmatrix=[ 0.396818182001    0.0985606059998    0.0932954550005| 0.0985606059998     0.399015152001    0.0985606059999| 0.0932954550005    0.0985606059999        0.396818182|] Xmatrix=[ 0.146931818003    0.0518560609953    0.0402083329937| 0.0518560609953     0.140113636005    0.0518560610013| 0.0402083329937    0.0518560610013     0.146931818001|] Cmatrix=[0                  0                  0| 0                  0                  0| 0                  0                  0|]
New Line.711_740 Phases=3 bus1=711.1.2.3 bus2=740.1.2.3 Units=km Length=0.2 Rmatrix=[ 0.396818182001    0.0985606060003    0.0932954549998| 0.0985606060003     0.399015151999    0.0985606059994| 0.0932954549998    0.0985606059994        0.396818182|] Xmatrix=[ 0.146931817996    0.0518560610052    0.0402083329986| 0.0518560610052     0.140113636004    0.0518560609986| 0.0402083329986    0.0518560609986        0.146931818|] Cmatrix=[0                  0                  0| 0                  0                  0| 0                  0                  0|]
New Line.744_728 Phases=3 bus1=744.1.2.3 bus2=728.1.2.3 Units=km Length=0.2 Rmatrix=[ 0.396818182001    0.0985606060018    0.0932954550008| 0.0985606060018     0.399015152001    0.0985606059998| 0.0932954550008    0.0985606059998        0.396818182|] Xmatrix=[ 0.146931817996    0.0518560609986    0.0402083329901| 0.0518560609986     0.140113636004    0.0518560610058| 0.0402083329901    0.0518560610058     0.146931817996|] Cmatrix=[0                  0                  0| 0                  0                  0| 0                  0                  0|]
New Line.744_729 Phases=3 bus1=744.1.2.3 bus2=729.1.2.3 Units=km Length=0.28 Rmatrix=[    0.396818182    0.0985606059997    0.0932954549995| 0.0985606059997        0.399015152    0.0985606059986| 0.0932954549995    0.0985606059986     0.396818182001|] Xmatrix=[    0.146931818    0.0518560609993    0.0402083329918| 0.0518560609993     0.140113636004    0.0518560610004| 0.0402083329918    0.0518560610004     0.146931817998|] Cmatrix=[0                  0                  0| 0                  0                  0| 0                  0                  0|]
New Line.734_710 Phases=3 bus1=734.1.2.3 bus2=710.1.2.3 Units=km Length=0.52 Rmatrix=[    0.396818182    0.0985606059973    0.0932954549979| 0.0985606059973     0.399015152002    0.0985606059982| 0.0932954549979    0.0985606059982     0.396818181999|] Xmatrix=[ 0.146931817996    0.0518560610036    0.0402083330049| 0.0518560610036     0.140113636003    0.0518560609979| 0.0402083330049    0.0518560609979     0.146931818008|] Cmatrix=[0                  0                  0| 0                  0                  0| 0                  0                  0|]
New Line.734_737 Phases=3 bus1=734.1.2.3 bus2=737.1.2.3 Units=km Length=0.64 Rmatrix=[ 0.245000000001        0.092253788    0.0868371210003|     0.092253788        0.246628788    0.0922537880013| 0.0868371210003    0.0922537880013              0.245|] Xmatrix=[ 0.127140151998     0.039981060999    0.0288068179999|  0.039981060999     0.119810606001    0.0399810609998| 0.0288068179999    0.0399810609998     0.127140152001|] Cmatrix=[0                  0                  0| 0                  0                  0| 0                  0                  0|]
New Line.737_738 Phases=3 bus1=737.1.2.3 bus2=738.1.2.3 Units=km Length=0.4 Rmatrix=[          0.245    0.0922537880002    0.0868371210006| 0.0922537880002     0.246628787999    0.0922537879993| 0.0868371210006    0.0922537879993              0.245|] Xmatrix=[ 0.127140152004     0.039981061003    0.0288068179961|  0.039981061003        0.119810606    0.0399810610054| 0.0288068179961    0.0399810610054     0.127140151999|] Cmatrix=[0                  0                  0| 0                  0                  0| 0                  0                  0|]
New Line.738_711 Phases=3 bus1=738.1.2.3 bus2=711.1.2.3 Units=km Length=0.4 Rmatrix=[ 0.245000000001    0.0922537880001    0.0868371210002| 0.0922537880001     0.246628787999        0.092253788| 0.0868371210002        0.092253788     0.245000000001|] Xmatrix=[ 0.127140151999    0.0399810609995    0.0288068179939| 0.0399810609995     0.119810606003    0.0399810610004| 0.0288068179939    0.0399810610004     0.127140151994|] Cmatrix=[0                  0                  0| 0                  0                  0| 0                  0                  0|]
New Line.799r_701 Phases=3 bus1=799r.1.2.3 bus2=701.1.2.3 Units=km Length=1.85 Rmatrix=[ 0.0554166669977    0.0127462120145   0.00638257600113|  0.0127462120145    0.0501136359948    0.0127462120137| 0.00638257600113    0.0127462120137    0.0554166669989|] Xmatrix=[  0.0373674239943   -0.0069696970196  -0.00789772700762|  -0.0069696970196     0.035984847997  -0.00696969701953| -0.00789772700762  -0.00696969701953    0.0373674239984|] Cmatrix=[0                  0                  0| 0                  0                  0| 0                  0                  0|]
New Line.799_799r Phases=1 bus1=799.2 bus2=799r.2 Units=km Length=1 Rmatrix=0.001 Xmatrix=0 Cmatrix=0
New Transformer.SubXF Phases=3 Windings=2 XHL=8 %Noloadloss=0 %imag=0 sub=y Wdg=1 Bus=sourcebus Conn=delta kV=230 kVA=2500 %R=1 Wdg=2 Bus=799 Conn=delta kV=4.8 kVA=2500 %R=1
New Transformer.XFM1 Phases=3 Windings=2 XHL=1.81 %Noloadloss=0 %imag=0 Wdg=1 Bus=709 Conn=delta kV=4.8 kVA=500 %R=0.045 Wdg=2 Bus=775 Conn=delta kV=0.48 kVA=500 %R=0.045
New Transformer.reg1a Phases=1 Windings=2 Buses=[799.1.2 799r.1.2] Conns=delta kVs=[4.8         4.8] kVAs=[2000  2000] XHL=1 %Noloadloss=0 %imag=0
New Transformer.reg1c Buses=[799.3.2 799r.3.2] %Noloadloss=0 %imag=0 Like=reg1a
New Load.Load_701.1_model_1 Phases=1 bus1=701.1 Kv=2.77 Kw=214.6891 Model=1 Kvar=183.1218 Vminpu=0.01
New Load.Load_701.2_model_1 Phases=1 bus1=701.2 Kv=2.77 Kw=140 Model=1 Kvar=70 Vminpu=0.01
New Load.Load_701.3_model_1 Phases=1 bus1=701.3 Kv=2.77 Kw=275.3109 Model=1 Kvar=61.8782 Vminpu=0.01
New Load.Load_713.1_model_1 Phases=1 bus1=713.1 Kv=2.77 Kw=30.953 Model=1 Kvar=44.5374 Vminpu=0.01
New Load.Load_713.3_model_1 Phases=1 bus1=713.3 Kv=2.77 Kw=54.047 Model=1 Kvar=-4.5374 Vminpu=0.01
New Load.Load_727.1_model_1 Phases=1 bus1=727.1 Kv=2.77 Kw=14.9378 Model=1 Kvar=22.6244 Vminpu=0.01
New Load.Load_727.3_model_1 Phases=1 bus1=727.3 Kv=2.77 Kw=27.0622 Model=1 Kvar=-1.6244 Vminpu=0.01
New Load.Load_720.1_model_1 Phases=1 bus1=720.1 Kv=2.77 Kw=30.953 Model=1 Kvar=44.5374 Vminpu=0.01
New Load.Load_720.3_model_1 Phases=1 bus1=720.3 Kv=2.77 Kw=54.047 Model=1 Kvar=-4.5374 Vminpu=0.01
New Load.Load_712.1_model_1 Phases=1 bus1=712.1 Kv=2.77 Kw=30.953 Model=1 Kvar=44.5374 Vminpu=0.01
New Load.Load_712.3_model_1 Phases=1 bus1=712.3 Kv=2.77 Kw=54.047 Model=1 Kvar=-4.5374 Vminpu=0.01
New Load.Load_725.2_model_1 Phases=1 bus1=725.2 Kv=2.77 Kw=27.0622 Model=1 Kvar=-1.6244 Vminpu=0.01
New Load.Load_725.3_model_1 Phases=1 bus1=725.3 Kv=2.77 Kw=14.9378 Model=1 Kvar=22.6244 Vminpu=0.01
New Load.Load_732.1_model_1 Phases=1 bus1=732.1 Kv=2.77 Kw=14.9378 Model=1 Kvar=22.6244 Vminpu=0.01
New Load.Load_732.3_model_1 Phases=1 bus1=732.3 Kv=2.77 Kw=27.0622 Model=1 Kvar=-1.6244 Vminpu=0.01
New Load.Load_735.1_model_1 Phases=1 bus1=735.1 Kv=2.77 Kw=30.953 Model=1 Kvar=44.5374 Vminpu=0.01
New Load.Load_735.3_model_1 Phases=1 bus1=735.3 Kv=2.77 Kw=54.047 Model=1 Kvar=-4.5374 Vminpu=0.01
New Load.Load_740.1_model_1 Phases=1 bus1=740.1 Kv=2.77 Kw=30.953 Model=1 Kvar=44.5374 Vminpu=0.01
New Load.Load_740.3_model_1 Phases=1 bus1=740.3 Kv=2.77 Kw=54.047 Model=1 Kvar=-4.5374 Vminpu=0.01
New Load.Load_744.1_model_1 Phases=1 bus1=744.1 Kv=2.77 Kw=27.0622 Model=1 Kvar=-1.6244 Vminpu=0.01
New Load.Load_744.2_model_1 Phases=1 bus1=744.2 Kv=2.77 Kw=14.9378 Model=1 Kvar=22.6244 Vminpu=0.01
New Load.Load_734.1_model_1 Phases=1 bus1=734.1 Kv=2.77 Kw=14.9378 Model=1 Kvar=22.6244 Vminpu=0.01
New Load.Load_734.3_model_1 Phases=1 bus1=734.3 Kv=2.77 Kw=27.0622 Model=1 Kvar=-1.6244 Vminpu=0.01
New Load.Load_738.1_model_1 Phases=1 bus1=738.1 Kv=2.77 Kw=80.8979 Model=1 Kvar=-5.3731 Vminpu=0.01
New Load.Load_738.2_model_1 Phases=1 bus1=738.2 Kv=2.77 Kw=45.1021 Model=1 Kvar=67.3731 Vminpu=0.01
New Load.Load_728.1_model_1 Phases=1 bus1=728.1 Kv=2.77 Kw=42 Model=1 Kvar=21 Vminpu=0.01
New Load.Load_728.2_model_1 Phases=1 bus1=728.2 Kv=2.77 Kw=42 Model=1 Kvar=21 Vminpu=0.01
New Load.Load_728.3_model_1 Phases=1 bus1=728.3 Kv=2.77 Kw=42 Model=1 Kvar=21 Vminpu=0.01
New Load.Load_730.1_model_2 Phases=1 bus1=730.1 Kv=2.77 Kw=30.953 Model=2 Kvar=44.5374 Vminpu=0.01
New Load.Load_730.3_model_2 Phases=1 bus1=730.3 Kv=2.77 Kw=54.047 Model=2 Kvar=-4.5374 Vminpu=0.01
New Load.Load_742.1_model_2 Phases=1 bus1=742.1 Kv=2.77 Kw=5.1547 Model=2 Kvar=-0.3094 Vminpu=0.01
New Load.Load_742.2_model_2 Phases=1 bus1=742.2 Kv=2.77 Kw=56.8923 Model=2 Kvar=-0.22799 Vminpu=0.01
New Load.Load_742.3_model_2 Phases=1 bus1=742.3 Kv=2.77 Kw=30.953 Model=2 Kvar=44.5374 Vminpu=0.01
New Load.Load_724.2_model_2 Phases=1 bus1=724.2 Kv=2.77 Kw=27.0622 Model=2 Kvar=-1.6244 Vminpu=0.01
New Load.Load_724.3_model_2 Phases=1 bus1=724.3 Kv=2.77 Kw=14.9378 Model=2 Kvar=22.6244 Vminpu=0.01
New Load.Load_731.2_model_2 Phases=1 bus1=731.2 Kv=2.77 Kw=54.047 Model=2 Kvar=-4.5374 Vminpu=0.01
New Load.Load_731.3_model_2 Phases=1 bus1=731.3 Kv=2.77 Kw=30.953 Model=2 Kvar=44.5374 Vminpu=0.01
New Load.Load_736.2_model_2 Phases=1 bus1=736.2 Kv=2.77 Kw=27.0622 Model=2 Kvar=-1.6244 Vminpu=0.01
New Load.Load_736.3_model_2 Phases=1 bus1=736.3 Kv=2.77 Kw=14.9378 Model=2 Kvar=22.6244 Vminpu=0.01
New Load.Load_718.1_model_2 Phases=1 bus1=718.1 Kv=2.77 Kw=54.047 Model=2 Kvar=-4.5374 Vminpu=0.01
New Load.Load_718.2_model_2 Phases=1 bus1=718.2 Kv=2.77 Kw=30.953 Model=2 Kvar=44.5374 Vminpu=0.01
New Load.Load_714.1_model_4 Phases=1 bus1=714.1 Kv=2.77 Kw=10.8094 Model=4 Kvar=-0.90748 Vminpu=0.01
New Load.Load_714.2_model_4 Phases=1 bus1=714.2 Kv=2.77 Kw=19.5774 Model=4 Kvar=7.8453 Vminpu=0.01
New Load.Load_714.3_model_4 Phases=1 bus1=714.3 Kv=2.77 Kw=7.6132 Model=4 Kvar=11.0622 Vminpu=0.01
New Load.Load_722.1_model_4 Phases=1 bus1=722.1 Kv=2.77 Kw=7.6132 Model=4 Kvar=11.0622 Vminpu=0.01
New Load.Load_722.2_model_4 Phases=1 bus1=722.2 Kv=2.77 Kw=90.2073 Model=4 Kvar=-5.4145 Vminpu=0.01
New Load.Load_722.3_model_4 Phases=1 bus1=722.3 Kv=2.77 Kw=63.1795 Model=4 Kvar=74.3523 Vminpu=0.01
New Load.Load_733.1_model_4 Phases=1 bus1=733.1 Kv=2.77 Kw=54.047 Model=4 Kvar=-4.5374 Vminpu=0.01
New Load.Load_733.2_model_4 Phases=1 bus1=733.2 Kv=2.77 Kw=30.953 Model=4 Kvar=44.5374 Vminpu=0.01
New Load.Load_711.1_model_4 Phases=1 bus1=711.1 Kv=2.77 Kw=14.9378 Model=4 Kvar=22.6244 Vminpu=0.01
New Load.Load_711.3_model_4 Phases=1 bus1=711.3 Kv=2.77 Kw=27.0622 Model=4 Kvar=-1.6244 Vminpu=0.01
New Load.Load_737.1_model_4 Phases=1 bus1=737.1 Kv=2.77 Kw=90.2073 Model=4 Kvar=-5.4145 Vminpu=0.01
New Load.Load_737.2_model_4 Phases=1 bus1=737.2 Kv=2.77 Kw=49.7927 Model=4 Kvar=75.4145 Vminpu=0.01
New Load.Load_729.1_model_4 Phases=1 bus1=729.1 Kv=2.77 Kw=27.0622 Model=4 Kvar=-1.6244 Vminpu=0.01
New Load.Load_729.2_model_4 Phases=1 bus1=729.2 Kv=2.77 Kw=14.9378 Model=4 Kvar=22.6244 Vminpu=0.01


! Let DSS estimate the voltage bases
Set voltagebases=[230 4.8 0.48]
Calcvoltagebases     ! This also establishes the bus list

Buscoords ieee37_Reduced_buscoords.csv
 
 